*(+) 1N751     5.1 V  0.5W  CASE DO-35
.model D1N751  D(Is=1.004f Rs=.5875 Ikf=0 N=1 Xti=3 Eg=1.11 Cjo=160p M=.5484
+		Vj=.75 Fc=.5 Isr=1.8n Nr=2 Bv=5.1 Ibv=27.721m Nbv=1.1779
+		Ibvl=1.1646m Nbvl=21.894 Tbv1=176.47u)
*		Motorola	pid=1N751	case=DO-35
*		89-9-18-gjg
*		Vz = 5.1 @ 20mA, Zz = 175 @ 1mA, Zz = 8.2 @ 5mA, Zz = 2.2 @ 20mA