.MODEL BC237 NPN (IS=1.8E-14, ISE=5.0E-14, NF=0.9955, NE=1.46, BF=400, BR=35.5, IKF=0.14,
IKR=0.03, ISC=1.72E-13, NC=1.27, NR=1.005, RB=0.56, RE=0.6, RC=0.25, VAF=80, VAR=12.5, CJE=13E-
12, TF=0.64E-9, CJC=4E-12, TR=50.72E-9, VJC=0.54, MJC=0.33) 