Version 4
SHEET 1 1308 680
WIRE 432 96 304 96
WIRE 656 96 512 96
WIRE 304 176 304 96
WIRE 656 176 656 96
WIRE 304 320 304 256
WIRE 496 320 304 320
WIRE 656 320 656 240
WIRE 656 320 496 320
WIRE 496 368 496 320
FLAG 496 368 0
SYMBOL voltage 304 160 R0
WINDOW 123 0 0 Left 2
WINDOW 39 0 0 Left 2
SYMATTR InstName V1
SYMATTR Value 0
SYMBOL diode 640 176 R0
SYMATTR InstName D1
SYMATTR Value D1N751
SYMBOL res 528 80 R90
WINDOW 0 0 56 VBottom 2
WINDOW 3 32 56 VTop 2
SYMATTR InstName R1
SYMATTR Value 1k
TEXT 272 328 Left 2 !.dc V1 -6 1 0.05
