Version 4
SHEET 1 880 872
WIRE -176 -1040 -176 -1072
WIRE -768 -960 -768 -992
WIRE -656 -960 -656 -992
WIRE -176 -928 -176 -960
WIRE -240 -880 -368 -880
WIRE -768 -832 -768 -880
WIRE -656 -832 -656 -880
WIRE -176 -736 -176 -832
WIRE 0 -736 -176 -736
WIRE 208 -736 64 -736
WIRE -528 -720 -672 -720
WIRE -368 -720 -368 -880
WIRE -368 -720 -464 -720
WIRE -176 -656 -176 -736
WIRE -672 -624 -672 -720
WIRE -368 -608 -368 -720
WIRE -240 -608 -368 -608
WIRE 208 -576 208 -736
WIRE -176 -480 -176 -560
WIRE -176 -352 -176 -400
WIRE -672 -256 -672 -544
WIRE -160 -256 -672 -256
WIRE 208 -256 208 -496
WIRE 208 -256 -160 -256
WIRE -160 -192 -160 -256
FLAG -768 -832 0
FLAG -656 -832 0
FLAG -768 -992 +Vcc
FLAG -656 -992 -Vcc
FLAG -176 -352 -Vcc
FLAG -176 -1072 +Vcc
FLAG -160 -192 0
FLAG 208 -736 Out
IOPIN 208 -736 Out
FLAG -672 -720 In
IOPIN -672 -720 In
SYMBOL res -192 -1056 R0
SYMATTR InstName R1
SYMATTR Value 120
SYMBOL res -192 -496 R0
SYMATTR InstName R2
SYMATTR Value 120
SYMBOL res 192 -592 R0
SYMATTR InstName R3
SYMATTR Value 1.2k
SYMBOL polcap 0 -720 R270
WINDOW 0 32 32 VTop 2
WINDOW 3 0 32 VBottom 2
SYMATTR InstName C1
SYMATTR Value 1µ
SYMBOL polcap -464 -736 R90
WINDOW 0 0 32 VBottom 2
WINDOW 3 32 32 VTop 2
SYMATTR InstName C2
SYMATTR Value 1µ
SYMBOL voltage -768 -976 R0
WINDOW 123 0 0 Left 2
WINDOW 39 0 0 Left 2
SYMATTR InstName V1
SYMATTR Value 12
SYMBOL voltage -656 -976 R0
WINDOW 123 0 0 Left 2
WINDOW 39 0 0 Left 2
SYMATTR InstName V2
SYMATTR Value -12
SYMBOL voltage -672 -640 R0
WINDOW 123 0 0 Left 2
WINDOW 39 0 0 Left 2
SYMATTR InstName V3
SYMATTR Value SINE(0 1 1k)
SYMBOL npn2 -240 -928 R0
SYMATTR InstName Q1
SYMATTR Value BD135
SYMBOL pnp2 -240 -560 M180
SYMATTR InstName Q2
SYMATTR Value BD136
TEXT -800 -168 Left 2 !.tran 0 40m 30m 0.01
