Version 4
SHEET 1 880 680
WIRE 112 48 -16 48
WIRE 288 48 176 48
WIRE -16 128 -16 48
WIRE 288 128 288 48
WIRE -16 272 -16 208
WIRE 144 272 -16 272
WIRE 288 272 288 208
WIRE 288 272 144 272
WIRE 144 288 144 272
FLAG 144 288 0
SYMBOL diode 112 64 R270
WINDOW 0 32 32 VTop 2
WINDOW 3 0 32 VBottom 2
SYMATTR InstName D1
SYMATTR Value 1N4001
SYMBOL res 272 112 R0
SYMATTR InstName R1
SYMATTR Value 1k
SYMBOL voltage -16 112 R0
WINDOW 123 0 0 Left 2
WINDOW 39 0 0 Left 2
SYMATTR InstName V1
SYMATTR Value SINE(0 2 1k)
TEXT -48 352 Left 2 !.tran 0 3m 0 0.01m
TEXT -48 384 Left 2 !.lib ../../01_models/1N4001.lib
